<?xml version="1.0" encoding="UTF-8"?>

<!-- generated on Tue 02 Feb 2021 12:48:19 +08 by Eclipse SUMO netedit Version 1.8.0
<configuration xmlns:xsi="http://www.w3.org/2001/XMLSchema-instance" xsi:noNamespaceSchemaLocation="http://sumo.dlr.de/xsd/netconvertConfiguration.xsd">

    <input>
        <sumo-net-file value="/home/amerfathullah/Desktop/gambir/gambir.net.xml"/>
    </input>

    <output>
        <output-file value="/home/amerfathullah/Desktop/gambir/gambir.net.xml"/>
        <junctions.join-output value=""/>
    </output>

    <processing>
        <geometry.min-radius.fix.railways value="false"/>
        <geometry.max-grade.fix value="false"/>
        <offset.disable-normalization value="true"/>
        <lefthand value="true"/>
    </processing>

    <junctions>
        <no-turnarounds value="true"/>
        <junctions.corner-detail value="5"/>
        <junctions.limit-turn-speed value="5.5"/>
        <rectangular-lane-cut value="false"/>
    </junctions>

    <pedestrian>
        <walkingareas value="false"/>
    </pedestrian>

    <netedit>
        <edgeTypes-output value="/home/amerfathullah/Desktop/gambir/gambir.edg.xml"/>
    </netedit>

    <report>
        <aggregate-warnings value="5"/>
    </report>

</configuration>
-->

<net version="1.6" junctionCornerDetail="5" lefthand="true" limitTurnSpeed="5.50" xmlns:xsi="http://www.w3.org/2001/XMLSchema-instance" xsi:noNamespaceSchemaLocation="http://sumo.dlr.de/xsd/net_file.xsd">

    <location netOffset="0.00,0.00" convBoundary="-462.62,-1332.05,1738.86,834.14" origBoundary="-10000000000.00,-10000000000.00,10000000000.00,10000000000.00" projParameter="!"/>

    <edge id=":junction1_0" function="internal">
        <lane id=":junction1_0_0" index="0" disallow="pedestrian tram rail_urban rail rail_electric rail_fast ship" speed="6.04" length="9.07" shape="634.51,171.44 632.57,173.14 630.68,173.65 628.85,172.96 627.08,171.09"/>
    </edge>
    <edge id=":junction1_1" function="internal">
        <lane id=":junction1_1_0" index="0" disallow="pedestrian tram rail_urban rail rail_electric rail_fast ship" speed="60.00" length="21.23" shape="634.51,171.44 631.35,174.95 627.29,179.22 623.14,183.40 619.71,186.65"/>
    </edge>
    <edge id=":junction1_2" function="internal">
        <lane id=":junction1_2_0" index="0" disallow="pedestrian tram rail_urban rail rail_electric rail_fast ship" speed="8.46" length="7.37" shape="634.51,171.44 631.27,176.19 630.88,177.76"/>
    </edge>
    <edge id=":junction1_14" function="internal">
        <lane id=":junction1_14_0" index="0" disallow="pedestrian tram rail_urban rail rail_electric rail_fast ship" speed="8.46" length="10.80" shape="630.88,177.76 630.23,180.33 631.38,183.86 634.73,186.78"/>
    </edge>
    <edge id=":junction1_3" function="internal">
        <lane id=":junction1_3_0" index="0" disallow="pedestrian tram rail_urban rail rail_electric rail_fast ship" speed="6.23" length="9.31" shape="637.97,181.26 636.00,179.65 635.17,177.83 635.48,175.78 636.94,173.52"/>
    </edge>
    <edge id=":junction1_4" function="internal">
        <lane id=":junction1_4_0" index="0" disallow="pedestrian tram rail_urban rail rail_electric rail_fast ship" speed="22.69" length="15.79" shape="637.97,181.26 634.16,178.93 631.73,177.04 629.69,174.71 627.08,171.09"/>
        <lane id=":junction1_4_1" index="1" disallow="pedestrian tram rail_urban rail rail_electric rail_fast ship" speed="23.69" length="15.79" shape="636.35,184.02 632.20,181.48 629.54,179.42 627.31,176.89 624.46,172.93"/>
    </edge>
    <edge id=":junction1_6" function="internal">
        <lane id=":junction1_6_0" index="0" disallow="pedestrian tram rail_urban rail rail_electric rail_fast ship" speed="10.22" length="6.03" shape="636.35,184.02 632.22,182.36 630.63,182.32"/>
    </edge>
    <edge id=":junction1_15" function="internal">
        <lane id=":junction1_15_0" index="0" disallow="pedestrian tram rail_urban rail rail_electric rail_fast ship" speed="10.22" length="12.11" shape="630.63,182.32 628.07,182.25 623.90,183.68 619.71,186.65"/>
    </edge>
    <edge id=":junction1_7" function="internal">
        <lane id=":junction1_7_0" index="0" disallow="pedestrian tram rail_urban rail rail_electric rail_fast ship" speed="8.43" length="12.09" shape="621.84,189.04 624.09,187.68 626.73,187.32 629.73,187.93 633.11,189.53"/>
    </edge>
    <edge id=":junction1_8" function="internal">
        <lane id=":junction1_8_0" index="0" disallow="pedestrian tram rail_urban rail rail_electric rail_fast ship" speed="60.00" length="21.66" shape="621.84,189.04 625.31,185.74 629.57,181.45 633.73,177.08 636.94,173.52"/>
    </edge>
    <edge id=":junction1_9" function="internal">
        <lane id=":junction1_9_0" index="0" disallow="pedestrian tram rail_urban rail rail_electric rail_fast ship" speed="9.38" length="7.98" shape="621.84,189.04 625.22,185.16 626.26,182.52"/>
    </edge>
    <edge id=":junction1_16" function="internal">
        <lane id=":junction1_16_0" index="0" disallow="pedestrian tram rail_urban rail rail_electric rail_fast ship" speed="9.38" length="10.19" shape="626.26,182.52 626.79,181.18 626.54,177.11 624.46,172.93"/>
    </edge>
    <edge id=":junction1_10" function="internal">
        <lane id=":junction1_10_0" index="0" disallow="pedestrian tram rail_urban rail rail_electric rail_fast ship" speed="7.44" length="11.09" shape="619.24,176.62 620.96,179.65 621.62,182.34 621.20,184.67 619.71,186.65"/>
    </edge>
    <edge id=":junction1_11" function="internal">
        <lane id=":junction1_11_0" index="0" disallow="pedestrian tram rail_urban rail rail_electric rail_fast ship" speed="25.56" length="18.52" shape="619.24,176.62 622.56,181.23 625.16,184.18 628.26,186.58 633.11,189.53"/>
        <lane id=":junction1_11_1" index="1" disallow="pedestrian tram rail_urban rail rail_electric rail_fast ship" speed="24.64" length="18.52" shape="621.85,174.78 624.94,179.06 627.35,181.80 630.23,184.03 634.73,186.78"/>
    </edge>
    <edge id=":junction1_13" function="internal">
        <lane id=":junction1_13_0" index="0" disallow="pedestrian tram rail_urban rail rail_electric rail_fast ship" speed="8.32" length="6.04" shape="621.85,174.78 625.17,178.06 626.50,178.39"/>
    </edge>
    <edge id=":junction1_17" function="internal">
        <lane id=":junction1_17_0" index="0" disallow="pedestrian tram rail_urban rail rail_electric rail_fast ship" speed="8.32" length="12.32" shape="626.50,178.39 628.79,178.94 632.71,177.43 636.94,173.52"/>
    </edge>
    <edge id=":junction2_0" function="internal">
        <lane id=":junction2_0_0" index="0" disallow="pedestrian tram rail_urban rail rail_electric rail_fast ship" speed="5.79" length="9.15" shape="409.97,-149.87 407.42,-149.03 405.56,-149.36 404.39,-150.84 403.93,-153.49"/>
    </edge>
    <edge id=":junction2_1" function="internal">
        <lane id=":junction2_1_0" index="0" disallow="pedestrian tram rail_urban rail rail_electric rail_fast ship" speed="8.69" length="18.97" shape="409.97,-149.87 404.71,-146.60 401.80,-143.08 401.21,-139.31 402.97,-135.29"/>
    </edge>
    <edge id=":junction2_2" function="internal">
        <lane id=":junction2_2_0" index="0" disallow="pedestrian tram rail_urban rail rail_electric rail_fast ship" speed="6.52" length="10.19" shape="408.20,-138.98 407.13,-141.28 407.30,-143.39 408.72,-145.29 411.38,-147.00"/>
    </edge>
    <edge id=":junction2_3" function="internal">
        <lane id=":junction2_3_0" index="0" disallow="pedestrian tram rail_urban rail rail_electric rail_fast ship" speed="16.55" length="16.44" shape="408.20,-138.98 405.73,-142.79 404.53,-145.72 404.10,-148.90 403.93,-153.49"/>
        <lane id=":junction2_3_1" index="1" disallow="pedestrian tram rail_urban rail rail_electric rail_fast ship" speed="17.51" length="16.44" shape="405.59,-137.14 402.81,-141.40 401.44,-144.68 400.93,-148.24 400.73,-153.37"/>
    </edge>
    <edge id=":junction2_5" function="internal">
        <lane id=":junction2_5_0" index="0" disallow="pedestrian tram rail_urban rail rail_electric rail_fast ship" speed="19.26" length="20.17" shape="394.33,-153.14 394.62,-147.00 395.32,-142.61 397.03,-138.56 400.36,-133.45"/>
        <lane id=":junction2_5_1" index="1" disallow="pedestrian tram rail_urban rail rail_electric rail_fast ship" speed="18.41" length="20.17" shape="397.53,-153.26 397.77,-147.57 398.35,-143.63 399.89,-140.01 402.97,-135.29"/>
    </edge>
    <edge id=":junction2_7" function="internal">
        <lane id=":junction2_7_0" index="0" disallow="pedestrian tram rail_urban rail rail_electric rail_fast ship" speed="8.18" length="6.60" shape="397.53,-153.26 398.57,-148.06 399.48,-147.12"/>
    </edge>
    <edge id=":junction2_8" function="internal">
        <lane id=":junction2_8_0" index="0" disallow="pedestrian tram rail_urban rail rail_electric rail_fast ship" speed="8.18" length="13.05" shape="399.48,-147.12 401.23,-145.29 405.50,-144.93 411.38,-147.00"/>
    </edge>
    <edge id=":junction3_0" function="internal">
        <lane id=":junction3_0_0" index="0" disallow="pedestrian tram rail_urban rail rail_electric rail_fast ship" speed="19.17" length="20.04" shape="390.35,-524.60 390.00,-530.70 389.14,-535.00 387.27,-538.94 383.87,-544.02"/>
        <lane id=":junction3_0_1" index="1" disallow="pedestrian tram rail_urban rail rail_electric rail_fast ship" speed="18.31" length="20.04" shape="387.15,-524.48 386.84,-530.11 386.10,-533.97 384.40,-537.50 381.26,-542.17"/>
    </edge>
    <edge id=":junction3_2" function="internal">
        <lane id=":junction3_2_0" index="0" disallow="pedestrian tram rail_urban rail rail_electric rail_fast ship" speed="8.26" length="6.34" shape="387.15,-524.48 386.15,-529.25 385.14,-530.32"/>
    </edge>
    <edge id=":junction3_8" function="internal">
        <lane id=":junction3_8_0" index="0" disallow="pedestrian tram rail_urban rail rail_electric rail_fast ship" speed="8.26" length="12.44" shape="385.14,-530.32 383.56,-531.99 379.39,-532.69 373.63,-531.36"/>
    </edge>
    <edge id=":junction3_3" function="internal">
        <lane id=":junction3_3_0" index="0" disallow="pedestrian tram rail_urban rail rail_electric rail_fast ship" speed="5.94" length="9.09" shape="374.71,-528.35 377.27,-528.87 379.13,-528.37 380.29,-526.83 380.76,-524.25"/>
    </edge>
    <edge id=":junction3_4" function="internal">
        <lane id=":junction3_4_0" index="0" disallow="pedestrian tram rail_urban rail rail_electric rail_fast ship" speed="8.33" length="18.68" shape="374.71,-528.35 380.00,-530.96 382.86,-534.14 383.28,-537.87 381.26,-542.17"/>
    </edge>
    <edge id=":junction3_5" function="internal">
        <lane id=":junction3_5_0" index="0" disallow="pedestrian tram rail_urban rail rail_electric rail_fast ship" speed="6.04" length="9.23" shape="376.03,-538.47 377.20,-536.16 377.19,-534.20 376.00,-532.60 373.63,-531.36"/>
    </edge>
    <edge id=":junction3_6" function="internal">
        <lane id=":junction3_6_0" index="0" disallow="pedestrian tram rail_urban rail rail_electric rail_fast ship" speed="16.45" length="16.30" shape="376.03,-538.47 378.56,-534.72 379.91,-531.87 380.51,-528.77 380.76,-524.25"/>
        <lane id=":junction3_6_1" index="1" disallow="pedestrian tram rail_urban rail rail_electric rail_fast ship" speed="17.41" length="16.30" shape="378.64,-540.32 381.48,-536.11 383.00,-532.92 383.68,-529.44 383.95,-524.37"/>
    </edge>
    <edge id=":junction4_0" function="internal">
        <lane id=":junction4_0_0" index="0" disallow="pedestrian tram rail_urban rail rail_electric rail_fast ship" speed="6.52" length="8.65" shape="171.26,-852.24 169.49,-850.69 167.63,-850.04 165.67,-850.29 163.62,-851.44"/>
    </edge>
    <edge id=":junction4_1" function="internal">
        <lane id=":junction4_1_0" index="0" disallow="pedestrian tram rail_urban rail rail_electric rail_fast ship" speed="9.21" length="15.55" shape="171.26,-852.24 168.30,-848.17 166.74,-844.48 166.57,-841.16 167.81,-838.23"/>
    </edge>
    <edge id=":junction4_2" function="internal">
        <lane id=":junction4_2_0" index="0" disallow="pedestrian tram rail_urban rail rail_electric rail_fast ship" speed="7.13" length="8.98" shape="173.04,-841.93 171.99,-843.98 171.75,-846.04 172.32,-848.09 173.69,-850.16"/>
    </edge>
    <edge id=":junction4_3" function="internal">
        <lane id=":junction4_3_0" index="0" disallow="pedestrian tram rail_urban rail rail_electric rail_fast ship" speed="42.04" length="12.99" shape="173.04,-841.93 170.69,-845.15 168.88,-847.21 166.79,-849.01 163.62,-851.44"/>
        <lane id=":junction4_3_1" index="1" disallow="pedestrian tram rail_urban rail rail_electric rail_fast ship" speed="40.49" length="12.99" shape="170.43,-840.08 168.24,-843.07 166.56,-844.98 164.63,-846.64 161.68,-848.89"/>
    </edge>
    <edge id=":junction4_5" function="internal">
        <lane id=":junction4_5_0" index="0" disallow="pedestrian tram rail_urban rail rail_electric rail_fast ship" speed="37.21" length="11.04" shape="157.80,-843.80 160.29,-841.90 161.93,-840.51 163.36,-838.90 165.20,-836.38"/>
        <lane id=":junction4_5_1" index="1" disallow="pedestrian tram rail_urban rail rail_electric rail_fast ship" speed="38.89" length="11.04" shape="159.74,-846.35 162.46,-844.27 164.24,-842.74 165.80,-840.98 167.81,-838.23"/>
    </edge>
    <edge id=":junction4_7" function="internal">
        <lane id=":junction4_7_0" index="0" disallow="pedestrian tram rail_urban rail rail_electric rail_fast ship" speed="8.69" length="4.97" shape="159.74,-846.35 163.03,-844.74 164.33,-844.78"/>
    </edge>
    <edge id=":junction4_8" function="internal">
        <lane id=":junction4_8_0" index="0" disallow="pedestrian tram rail_urban rail rail_electric rail_fast ship" speed="8.69" length="11.19" shape="164.33,-844.78 166.45,-844.84 170.00,-846.65 173.69,-850.16"/>
    </edge>
    <edge id=":junction5_0" function="internal">
        <lane id=":junction5_0_0" index="0" disallow="pedestrian tram rail_urban rail rail_electric rail_fast ship" speed="90.00" length="19.88" shape="-430.90,-1312.53 -434.80,-1308.17 -437.53,-1305.24 -440.41,-1302.45 -444.73,-1298.51"/>
        <lane id=":junction5_0_1" index="1" disallow="pedestrian tram rail_urban rail rail_electric rail_fast ship" speed="90.00" length="19.88" shape="-428.51,-1310.40 -432.48,-1305.97 -435.26,-1302.99 -438.19,-1300.14 -442.58,-1296.14"/>
    </edge>
    <edge id=":junction5_2" function="internal">
        <lane id=":junction5_2_0" index="0" disallow="pedestrian tram rail_urban rail rail_electric rail_fast ship" speed="9.14" length="7.01" shape="-428.51,-1310.40 -431.57,-1305.79 -431.82,-1304.33"/>
    </edge>
    <edge id=":junction5_8" function="internal">
        <lane id=":junction5_8_0" index="0" disallow="pedestrian tram rail_urban rail rail_electric rail_fast ship" speed="9.14" length="12.95" shape="-431.82,-1304.33 -432.32,-1301.41 -430.76,-1297.24 -426.88,-1293.30"/>
    </edge>
    <edge id=":junction5_3" function="internal">
        <lane id=":junction5_3_0" index="0" disallow="pedestrian tram rail_urban rail rail_electric rail_fast ship" speed="6.34" length="9.04" shape="-423.00,-1298.39 -424.76,-1300.17 -425.47,-1302.06 -425.13,-1304.05 -423.74,-1306.13"/>
    </edge>
    <edge id=":junction5_4" function="internal">
        <lane id=":junction5_4_0" index="0" disallow="pedestrian tram rail_urban rail rail_electric rail_fast ship" speed="9.96" length="19.38" shape="-424.94,-1295.84 -429.70,-1298.65 -434.22,-1299.63 -438.52,-1298.79 -442.58,-1296.14"/>
    </edge>
    <edge id=":junction5_5" function="internal">
        <lane id=":junction5_5_0" index="0" disallow="pedestrian tram rail_urban rail rail_electric rail_fast ship" speed="7.44" length="10.41" shape="-438.29,-1291.39 -436.22,-1292.69 -433.95,-1293.01 -431.48,-1292.37 -428.82,-1290.75"/>
    </edge>
    <edge id=":junction5_6" function="internal">
        <lane id=":junction5_6_0" index="0" disallow="pedestrian tram rail_urban rail rail_electric rail_fast ship" speed="90.00" length="20.57" shape="-438.29,-1291.39 -433.83,-1295.47 -430.73,-1298.48 -427.78,-1301.63 -423.74,-1306.13"/>
        <lane id=":junction5_6_1" index="1" disallow="pedestrian tram rail_urban rail rail_electric rail_fast ship" speed="90.00" length="20.57" shape="-440.44,-1293.76 -436.01,-1297.81 -433.00,-1300.73 -430.13,-1303.80 -426.13,-1308.27"/>
    </edge>

    <edge id="1L_1" from="j1L" to="junction1" priority="-1">
        <lane id="1L_1_0" index="0" disallow="pedestrian tram rail_urban rail rail_electric rail_fast ship" speed="60.00" length="54.87" shape="670.23,129.78 634.51,171.44"/>
    </edge>
    <edge id="1R_1" from="j1R" to="junction1" priority="-1">
        <lane id="1R_1_0" index="0" disallow="pedestrian tram rail_urban rail rail_electric rail_fast ship" speed="60.00" length="49.03" shape="585.21,221.64 621.84,189.04"/>
    </edge>
    <edge id="1_1L" from="junction1" to="j1L" priority="-1">
        <lane id="1_1L_0" index="0" disallow="pedestrian tram rail_urban rail rail_electric rail_fast ship" speed="60.00" length="54.87" shape="636.94,173.52 672.65,131.86"/>
    </edge>
    <edge id="1_1R" from="junction1" to="j1R" priority="-1">
        <lane id="1_1R_0" index="0" disallow="pedestrian tram rail_urban rail rail_electric rail_fast ship" speed="60.00" length="49.03" shape="619.71,186.65 583.09,219.24"/>
    </edge>
    <edge id="1_2" from="junction1" to="junction2" priority="-1" length="400.00">
        <lane id="1_2_0" index="0" disallow="pedestrian tram rail_urban rail rail_electric rail_fast ship" speed="90.00" length="400.00" shape="627.08,171.09 408.20,-138.98"/>
        <lane id="1_2_1" index="1" disallow="pedestrian tram rail_urban rail rail_electric rail_fast ship" speed="90.00" length="400.00" shape="624.46,172.93 405.59,-137.14"/>
    </edge>
    <edge id="1_s" from="junction1" to="start" priority="-1" length="1900.00">
        <lane id="1_s_0" index="0" disallow="pedestrian tram rail_urban rail rail_electric rail_fast ship" speed="90.00" length="1900.00" shape="633.11,189.53 1736.43,838.28"/>
        <lane id="1_s_1" index="1" disallow="pedestrian tram rail_urban rail rail_electric rail_fast ship" speed="90.00" length="1900.00" shape="634.73,186.78 1738.05,835.52"/>
    </edge>
    <edge id="2L_2" from="j2L" to="junction2" priority="-1">
        <lane id="2L_2_0" index="0" disallow="pedestrian tram rail_urban rail rail_electric rail_fast ship" speed="60.00" length="64.30" shape="467.72,-178.16 409.97,-149.87"/>
    </edge>
    <edge id="2_1" from="junction2" to="junction1" priority="-1" length="400.00">
        <lane id="2_1_0" index="0" disallow="pedestrian tram rail_urban rail rail_electric rail_fast ship" speed="90.00" length="400.00" shape="400.36,-133.45 619.24,176.62"/>
        <lane id="2_1_1" index="1" disallow="pedestrian tram rail_urban rail rail_electric rail_fast ship" speed="90.00" length="400.00" shape="402.97,-135.29 621.85,174.78"/>
    </edge>
    <edge id="2_2L" from="junction2" to="j2L" priority="-1">
        <lane id="2_2L_0" index="0" disallow="pedestrian tram rail_urban rail rail_electric rail_fast ship" speed="60.00" length="64.30" shape="411.38,-147.00 469.12,-175.28"/>
    </edge>
    <edge id="2_3" from="junction2" to="junction3" priority="-1" length="1100.00">
        <lane id="2_3_0" index="0" disallow="pedestrian tram rail_urban rail rail_electric rail_fast ship" speed="90.00" length="1100.00" shape="403.93,-153.49 390.35,-524.60"/>
        <lane id="2_3_1" index="1" disallow="pedestrian tram rail_urban rail rail_electric rail_fast ship" speed="90.00" length="1100.00" shape="400.73,-153.37 387.15,-524.48"/>
    </edge>
    <edge id="3R_3" from="j3R" to="junction3" priority="-1">
        <lane id="3R_3_0" index="0" disallow="pedestrian tram rail_urban rail rail_electric rail_fast ship" speed="60.00" length="46.64" shape="330.80,-512.61 374.71,-528.35"/>
    </edge>
    <edge id="3_2" from="junction3" to="junction2" priority="-1" length="1100.00">
        <lane id="3_2_0" index="0" disallow="pedestrian tram rail_urban rail rail_electric rail_fast ship" speed="90.00" length="1100.00" shape="380.76,-524.25 394.33,-153.14"/>
        <lane id="3_2_1" index="1" disallow="pedestrian tram rail_urban rail rail_electric rail_fast ship" speed="90.00" length="1100.00" shape="383.95,-524.37 397.53,-153.26"/>
    </edge>
    <edge id="3_3R" from="junction3" to="j3R" priority="-1">
        <lane id="3_3R_0" index="0" disallow="pedestrian tram rail_urban rail rail_electric rail_fast ship" speed="60.00" length="46.64" shape="373.63,-531.36 329.72,-515.63"/>
    </edge>
    <edge id="3_4" from="junction3" to="junction4" priority="-1" spreadType="center" length="500.00" shape="387.82,-535.66 168.56,-845.49">
        <lane id="3_4_0" index="0" disallow="pedestrian tram rail_urban rail rail_electric rail_fast ship" speed="90.00" length="500.00" shape="383.87,-544.02 173.04,-841.93"/>
        <lane id="3_4_1" index="1" disallow="pedestrian tram rail_urban rail rail_electric rail_fast ship" speed="90.00" length="500.00" shape="381.26,-542.17 170.43,-840.08"/>
    </edge>
    <edge id="4L_4" from="j4L" to="junction4" priority="-1">
        <lane id="4L_4_0" index="0" disallow="pedestrian tram rail_urban rail rail_electric rail_fast ship" speed="60.00" length="68.63" shape="215.99,-904.29 171.26,-852.24"/>
    </edge>
    <edge id="4_3" from="junction4" to="junction3" priority="-1" spreadType="center" length="500.00" shape="163.33,-841.80 382.60,-531.96">
        <lane id="4_3_0" index="0" disallow="pedestrian tram rail_urban rail rail_electric rail_fast ship" speed="90.00" length="500.00" shape="165.20,-836.38 376.03,-538.47"/>
        <lane id="4_3_1" index="1" disallow="pedestrian tram rail_urban rail rail_electric rail_fast ship" speed="90.00" length="500.00" shape="167.81,-838.23 378.64,-540.32"/>
    </edge>
    <edge id="4_4L" from="junction4" to="j4L" priority="-1">
        <lane id="4_4L_0" index="0" disallow="pedestrian tram rail_urban rail rail_electric rail_fast ship" speed="60.00" length="68.63" shape="173.69,-850.16 218.41,-902.21"/>
    </edge>
    <edge id="4_5" from="junction4" to="junction5" priority="-1" length="700.00">
        <lane id="4_5_0" index="0" disallow="pedestrian tram rail_urban rail rail_electric rail_fast ship" speed="90.00" length="700.00" shape="163.62,-851.44 -423.00,-1298.39"/>
        <lane id="4_5_1" index="1" disallow="pedestrian tram rail_urban rail rail_electric rail_fast ship" speed="90.00" length="700.00" shape="161.68,-848.89 -424.94,-1295.84"/>
    </edge>
    <edge id="5L_5" from="j5L" to="junction5" priority="-1">
        <lane id="5L_5_0" index="0" disallow="pedestrian tram rail_urban rail rail_electric rail_fast ship" speed="90.00" length="30.47" shape="-410.59,-1335.25 -430.90,-1312.53"/>
        <lane id="5L_5_1" index="1" disallow="pedestrian tram rail_urban rail rail_electric rail_fast ship" speed="90.00" length="30.47" shape="-408.20,-1333.12 -428.51,-1310.40"/>
    </edge>
    <edge id="5R_5" from="j5R" to="junction5" priority="-1">
        <lane id="5R_5_0" index="0" disallow="pedestrian tram rail_urban rail rail_electric rail_fast ship" speed="90.00" length="28.44" shape="-459.40,-1272.33 -438.29,-1291.39"/>
        <lane id="5R_5_1" index="1" disallow="pedestrian tram rail_urban rail rail_electric rail_fast ship" speed="90.00" length="28.44" shape="-461.55,-1274.70 -440.44,-1293.76"/>
    </edge>
    <edge id="5_4" from="junction5" to="junction4" priority="-1" length="700.00">
        <lane id="5_4_0" index="0" disallow="pedestrian tram rail_urban rail rail_electric rail_fast ship" speed="90.00" length="700.00" shape="-428.82,-1290.75 157.80,-843.80"/>
        <lane id="5_4_1" index="1" disallow="pedestrian tram rail_urban rail rail_electric rail_fast ship" speed="90.00" length="700.00" shape="-426.88,-1293.30 159.74,-846.35"/>
    </edge>
    <edge id="5_5L" from="junction5" to="j5L" priority="-1">
        <lane id="5_5L_0" index="0" disallow="pedestrian tram rail_urban rail rail_electric rail_fast ship" speed="90.00" length="30.47" shape="-423.74,-1306.13 -403.43,-1328.85"/>
        <lane id="5_5L_1" index="1" disallow="pedestrian tram rail_urban rail rail_electric rail_fast ship" speed="90.00" length="30.47" shape="-426.13,-1308.27 -405.82,-1330.98"/>
    </edge>
    <edge id="5_5R" from="junction5" to="j5R" priority="-1">
        <lane id="5_5R_0" index="0" disallow="pedestrian tram rail_urban rail rail_electric rail_fast ship" speed="90.00" length="28.44" shape="-444.73,-1298.51 -465.84,-1279.45"/>
        <lane id="5_5R_1" index="1" disallow="pedestrian tram rail_urban rail rail_electric rail_fast ship" speed="90.00" length="28.44" shape="-442.58,-1296.14 -463.69,-1277.08"/>
    </edge>
    <edge id="s_1" from="start" to="junction1" priority="-1" length="1900.00">
        <lane id="s_1_0" index="0" disallow="pedestrian tram rail_urban rail rail_electric rail_fast ship" speed="90.00" length="1900.00" shape="1741.29,830.00 637.97,181.26"/>
        <lane id="s_1_1" index="1" disallow="pedestrian tram rail_urban rail rail_electric rail_fast ship" speed="90.00" length="1900.00" shape="1739.67,832.76 636.35,184.02"/>
    </edge>

    <tlLogic id="gneJ1" type="static" programID="0" offset="0">
        <phase duration="29" state="rrrGGGgrrrGGGg"/>
        <phase duration="16" state="rrryyyyrrryyyy"/>
        <phase duration="29" state="GGgrrrrGGgrrrr"/>
        <phase duration="16" state="yyyrrrryyyrrrr"/>
    </tlLogic>
    <tlLogic id="gneJ2" type="static" programID="0" offset="0">
        <phase duration="29" state="rrGGGGGg"/>
        <phase duration="16" state="rryyyyyy"/>
        <phase duration="29" state="GGGrrrrr"/>
        <phase duration="16" state="yyyrrrrr"/>
    </tlLogic>
    <tlLogic id="gneJ3" type="static" programID="0" offset="0">
        <phase duration="29" state="GGgrrGGG"/>
        <phase duration="16" state="yyyrryyy"/>
        <phase duration="29" state="rrrGGGrr"/>
        <phase duration="16" state="rrryyyrr"/>
    </tlLogic>
    <tlLogic id="gneJ4" type="static" programID="0" offset="0">
        <phase duration="29" state="rrGGGGGg"/>
        <phase duration="16" state="rryyyyyy"/>
        <phase duration="29" state="GGGrrrrr"/>
        <phase duration="16" state="yyyrrrrr"/>
    </tlLogic>
    <tlLogic id="gneJ5" type="static" programID="0" offset="0">
        <phase duration="29" state="GGgrrGGG"/>
        <phase duration="16" state="yyyrryyy"/>
        <phase duration="29" state="rrrGGGrr"/>
        <phase duration="16" state="rrryyyrr"/>
    </tlLogic>

    <junction id="j1L" type="dead_end" x="671.44" y="130.82" incLanes="1_1L_0" intLanes="" shape="671.44,130.82 673.87,132.90 671.44,130.82"/>
    <junction id="j1R" type="dead_end" x="584.15" y="220.44" incLanes="1_1R_0" intLanes="" shape="584.15,220.44 582.02,218.05 584.15,220.44"/>
    <junction id="j2L" type="dead_end" x="468.42" y="-176.72" incLanes="2_2L_0" intLanes="" shape="468.42,-176.72 469.83,-173.85 468.42,-176.72"/>
    <junction id="j3R" type="dead_end" x="330.26" y="-514.12" incLanes="3_3R_0" intLanes="" shape="330.26,-514.12 329.18,-517.13 330.26,-514.12"/>
    <junction id="j4L" type="dead_end" x="217.20" y="-903.25" incLanes="4_4L_0" intLanes="" shape="217.20,-903.25 219.63,-901.16 217.20,-903.25"/>
    <junction id="j5L" type="dead_end" x="-407.01" y="-1332.05" incLanes="5_5L_0 5_5L_1" intLanes="" shape="-407.01,-1332.05 -402.24,-1327.78 -407.01,-1332.05"/>
    <junction id="j5R" type="dead_end" x="-462.62" y="-1275.89" incLanes="5_5R_0 5_5R_1" intLanes="" shape="-462.62,-1275.89 -466.91,-1280.64 -462.62,-1275.89"/>
    <junction id="junction1" type="traffic_light" x="628.30" y="181.14" incLanes="1L_1_0 s_1_0 s_1_1 1R_1_0 2_1_0 2_1_1" intLanes=":junction1_0_0 :junction1_1_0 :junction1_14_0 :junction1_3_0 :junction1_4_0 :junction1_4_1 :junction1_15_0 :junction1_7_0 :junction1_8_0 :junction1_16_0 :junction1_10_0 :junction1_11_0 :junction1_11_1 :junction1_17_0" shape="633.30,170.40 638.16,174.56 636.97,176.61 636.90,177.54 637.18,178.39 637.81,179.17 638.78,179.88 632.29,190.91 630.33,189.89 628.53,189.24 626.89,188.94 625.40,189.01 624.07,189.44 622.90,190.23 618.64,185.45 619.89,183.39 619.96,182.15 619.65,180.76 618.98,179.22 617.93,177.55 628.39,170.16 629.96,171.64 630.77,171.86 631.59,171.72 632.44,171.23">
        <request index="0"  response="00000000110000" foes="00000000110000" cont="0"/>
        <request index="1"  response="11110001110000" foes="11111001110000" cont="0"/>
        <request index="2"  response="11100101110000" foes="11100101110000" cont="1"/>
        <request index="3"  response="00000000000000" foes="10000100000000" cont="0"/>
        <request index="4"  response="00001000000100" foes="10001100000111" cont="0"/>
        <request index="5"  response="00001000000100" foes="10001100000111" cont="0"/>
        <request index="6"  response="01111000000100" foes="01111100000110" cont="1"/>
        <request index="7"  response="01100000000000" foes="01100000000000" cont="0"/>
        <request index="8"  response="11100001111000" foes="11100001111100" cont="0"/>
        <request index="9"  response="11100001110010" foes="11100001110010" cont="1"/>
        <request index="10" response="00000000000000" foes="00000001000010" cont="0"/>
        <request index="11" response="00001000000100" foes="00001111000110" cont="0"/>
        <request index="12" response="00001000000100" foes="00001111000110" cont="0"/>
        <request index="13" response="00001000111100" foes="00001100111110" cont="1"/>
    </junction>